LAMMPS (9 Oct 2020)
##############################################################################################################################
# in.Potential_Test_TEMPLATE
#
# By: John Quinn
#
# Date: 9/21/2020
#
###############################################################################################################################

units				micro

atom_style			molecular

dimension			3

boundary 			p p p

read_data			Profs_Sim_10_point_V1.3.data
Reading data file ...
  orthogonal box = (0.0000000 0.0000000 0.0000000) to (100.00000 100.00000 100.00000)
  reading atoms ...
  740 atoms
Finding 1-2 1-3 1-4 neighbors ...
     0 = max # of 1-2 neighbors
     0 = max # of 1-3 neighbors
     0 = max # of 1-4 neighbors
     1 = max # of special neighbors

neighbor			1.0 bin
neigh_modify		delay 0 every 1 check yes one 100000 page 1000000

comm_modify cutoff 	6.5

mass				* 1.0

velocity			all set 1 0 0

angle_style 		harmonic
angle_coeff 		1 300.0 107.0

dihedral_style 		harmonic
dihedral_coeff 		1 80.0 1 2

bond_style			harmonic
bond_coeff			1 50 1.2

pair_style 			lj/cut 2.5

pair_coeff 			1 1 1 .1 2.8

timestep			0.00001

thermo				1000

dump 				1 all atom 500 dump.profs_sim_ver7

fix 				1 all nve

fix 				2 all bond/create 10 1 1 0.5 1 atype 1 dtype 1

run					1000000
  update every 1 steps, delay 0 steps, check yes
Step Temp E_pair E_mol TotEng Press
0     24175881 -0.0017074503            0    369.99829 0.00024666325
Averages over the last 501 of 1001 rows, steps 500000 to 1000000:
Temp E_pair E_mol TotEng Press
2.41759e+07 -0.00171617 0 369.998 0.000246663
Loop time of 33.7388 on 1 procs for 1000000 steps with 740 atoms
