LAMMPS (2 Jun 2020)
##############################################################################################################################
# in.Potential_Test_TEMPLATE
#
# By: John Quinn
#
# Date: 9/21/2020
#
###############################################################################################################################

units				lj

atom_style			molecular

dimension			3

boundary 			p p p

read_data			Soft_Ball_V18.data
  orthogonal box = (0.0 0.0 0.0) to (100.0 100.0 100.0)
  reading atoms ...
  31103 atoms

neighbor			1.0 bin
neigh_modify		delay 0 every 1 check yes

comm_modify cutoff 	6.5

mass				* 1.0

angle_style 		harmonic
angle_coeff 		1 10 10

dihedral_style 		harmonic
dihedral_coeff 		1 80.0 1 2

bond_style			harmonic
bond_coeff			1 50 1.2

pair_style 			lj/cut 2.5

pair_coeff 			1 1 1 1

timestep			0.00001

thermo				1000

dump 				1 all atom 500 dump.jq_test_wdihedral

fix 				1 all nve

fix 				2 all npt temp 300.0 300.0 100.0 iso 0.0 0.0 1000.0

fix 				3 all bond/create 10 1 1 0.8 1 atype 1 dtype 1

run					1000000
  update every 1 steps, delay 0 steps, check yes
Step Temp E_pair E_mol TotEng Press Volume
0            0   -3.7341885            0   -3.7341885   0.50909507      1000000
Averages over the last 501 of 1001 rows, steps 500000 to 1000000:
Temp E_pair E_mol TotEng Press Volume
0.677075 -4.45724 0 -3.44166 -0.0055809 1e+06
Loop time of 17160.3 on 1 procs for 1000000 steps with 31103 atoms
