LAMMPS (24 Dec 2020)

variable     infile  	string  membrane_v4
variable     datafile  	string  hybrid

variable     P_damp  equal  1                                                # Sets the Pressure damping variable used in the following " fix npt" commands
variable     P  equal  0.05                                                  # Sets the desired pressure of the system used in the following " fix npt" commands
variable     scale1 equal ramp(2.7,2.52)                                      # Sets the scale performed in the final fix on water scaling down sigma from 2.7- 2.5
variable     ew  equal 0.2                                                   # Sets the energy well ( epsilon) variable used in the pair coefficient specifications
variable     ini_T  equal  0.02		                                     # Sets the initial temperature used in the fix commands below
variable     T  equal  0.23                                                  # Sets the final temperature used in the fix commands below
variable     LD equal  1.0                                                   # Sets the temperature damping parameter used in fix commands below
variable     beta  equal 0.0194*0.0

units	     lj

atom_style   hybrid molecular ellipsoid

bond_style   harmonic                                    # Sets the bond style as harmonic spring defined by Hooke's law

boundary     p p p                                                           # Creates the periodic boundaries of the simulation box

read_data    hybrid.data
Reading data file ...
  orthogonal box = (-35.000000 -35.000000 -35.000000) to (35.000000 35.000000 35.000000)
  reading atoms ...
  21702 atoms
  8346 ellipsoids
  scanning bonds ...
  reading bonds ...
  3202 bonds
Finding 1-2 1-3 1-4 neighbors ...
     8 = max # of 1-2 neighbors
     8 = max # of 1-3 neighbors
    15 = max # of 1-4 neighbors
    22 = max # of special neighbors

# spectrin bonds
bond_coeff   1   50   1.5                                                 # Defines the bond coefficients and spring constant for the spectrin network bonds

# membrane-spectrin anchoring
bond_coeff   2*3  20  2.0                                                  # Defines the bond coefficients and spring constant for the transmembrane protein to spectrin network bonds

mass         *          1.0

set type     1*2 shape  1 1 1   					     # membrane particle are rigid body, it needs shape parameter to be set
Setting atom values ...
  8346 settings made for shape

group        bilayer  type 1 2                                               # Creates a group called bilayer which consists of type 1 and 2 particles,
8346 atoms in group bilayer
									     #(Type 1 Bilayer, Type 2 Transmembrane proteins)

group        network   type 3 4 5                                            # Creates a group called network which consists of type 3 4 5 particles
2722 atoms in group network
group        anchor_bonds   type  2  3  5
644 atoms in group anchor_bonds
group        water_in  type 6                                                # Creates a group called water_in consisting of type 6 particles ( Type 6 = Water inside Membrane)
1333 atoms in group water_in
group        water_out type 7                                                # Creates a group called water_out consisting of type 7 particles ( Type 7 = Water Outside Membrane)
9301 atoms in group water_out
group        water   type 6 7
10634 atoms in group water
group			fix1 type 3 4 5 6 7 	                                               # Creates a group called water consisting of both type 6 and 7 particles ( Water inside + Out)
13356 atoms in group fix1

velocity     bilayer create 0.23 87287 loop geom
velocity     network create 0.02 87287 loop geom
velocity     water create 0.23 87287 loop geom

pair_style   hybrid   lj/cut 3.6                         # Sets the pair_style potentials used for the simulation,
                                                                             #in the case both lennard-jones/cut and the fluidmembrane potential

pair_coeff   1*2    1*2   lj/cut   0.2 1.0
pair_coeff   1*2    3*5   lj/cut   0.2 1.0
pair_coeff   1*2    6*7   lj/cut   0.2 1.0
pair_coeff   3*5    3*5   lj/cut   0.2 1.0
                                                                             # and type 3,4,5 (network) particles

pair_coeff   3*5    6*7   lj/cut   0.2 1.0
                                                                             # and type 6,7 (water) particles

pair_coeff   6*7    6*7   lj/cut   0.2 2.7
                                                                             # and type 6,7 (water) particles

neighbor    1.0 bin

thermo_style custom step temp press ebond                                         # Printing thermodynamic data to the screen and log file

thermo	     200                                                             # Sets the number of timesteps to run before printing out thermodynamic data

timestep     0.005                                                            # Sets the timestep of the simulation

### equilibrium

fix         1 fix1 npt temp 0.23 0.23 1 iso 0.05 0.05 1
dump	    	1 all atom 50  dump.run.membrane_v4
run 					10000
  update every 1 steps, delay 10 steps, check yes
Step Temp Press E_bond
0   0.20364776   0.38190023    3.2238983
Averages over the last 26 of 51 rows, steps 5000 to 10000:
Temp Press E_bond
0.230124 0.0496746 0.0449938
Loop time of 78.8169 on 1 procs for 10000 steps with 21702 atoms

fix         2 bilayer nvt/asphere temp 0.23 0.23 1
run 					10000
Step Temp Press E_bond
10000   0.23100297  0.049084074  0.041412012
Averages over the last 26 of 51 rows, steps 15000 to 20000:
Temp Press E_bond
0.269696 0.049949 0.0164713
Loop time of 98.2545 on 1 procs for 10000 steps with 21702 atoms

### change RBC volume

fix         3 water adapt 1 pair lj/cut sigma  6 6 v_scale1
run 					10000
Step Temp Press E_bond
20000   0.27395119  0.050734961  0.016107104
Averages over the last 26 of 51 rows, steps 25000 to 30000:
Temp Press E_bond
0.272707 0.0498388 0.0134697
Loop time of 126.199 on 1 procs for 10000 steps with 21702 atoms

unfix       3
run 					10000
Step Temp Press E_bond
30000   0.27365303  0.050688992  0.012792463
Averages over the last 26 of 51 rows, steps 35000 to 40000:
Temp Press E_bond
0.272138 0.0499455 0.0125891
Loop time of 149.056 on 1 procs for 10000 steps with 21702 atoms
